/*--------------------------------*- C++ -*----------------------------------*\
| =========                 |                                                 |
| \\      /  F ield         | OpenFOAM: The Open Source CFD Toolbox           |
|  \\    /   O peration     | Version:  4.0                                   |
|   \\  /    A nd           | Web:      www.OpenFOAM.org                      |
|    \\/     M anipulation  |                                                 |
\*---------------------------------------------------------------------------*/
FoamFile
{
    version     2.0;
    format      binary;
    class       polyBoundaryMesh;
    location    "constant/polyMesh";
    object      boundary;
}
// * * * * * * * * * * * * * * * * * * * * * * * * * * * * * * * * * * * * * //

9
(
    north
    {
        type            patch;
        nFaces          0;
        startFace       125665;
    }
    east
    {
        type            patch;
        nFaces          0;
        startFace       125665;
    }
    south
    {
        type            patch;
        nFaces          1034;
        startFace       125665;
    }
    west
    {
        type            patch;
        nFaces          1156;
        startFace       126699;
    }
    top
    {
        type            patch;
        nFaces          225;
        startFace       127855;
    }
    terrain
    {
        type            wall;
        inGroups        1(wall);
        nFaces          3732;
        startFace       128080;
    }
    procBoundary2to0
    {
        type            processor;
        inGroups        1(processor);
        nFaces          134;
        startFace       131812;
        matchTolerance  0.0001;
        transform       unknown;
        myProcNo        2;
        neighbProcNo    0;
    }
    procBoundary2to1
    {
        type            processor;
        inGroups        1(processor);
        nFaces          864;
        startFace       131946;
        matchTolerance  0.0001;
        transform       unknown;
        myProcNo        2;
        neighbProcNo    1;
    }
    procBoundary2to3
    {
        type            processor;
        inGroups        1(processor);
        nFaces          1002;
        startFace       132810;
        matchTolerance  0.0001;
        transform       unknown;
        myProcNo        2;
        neighbProcNo    3;
    }
)

// ************************************************************************* //
