/*--------------------------------*- C++ -*----------------------------------*\
| =========                 |                                                 |
| \\      /  F ield         | OpenFOAM: The Open Source CFD Toolbox           |
|  \\    /   O peration     | Version:  4.0                                   |
|   \\  /    A nd           | Web:      www.OpenFOAM.org                      |
|    \\/     M anipulation  |                                                 |
\*---------------------------------------------------------------------------*/
FoamFile
{
    version     2.0;
    format      binary;
    class       polyBoundaryMesh;
    location    "constant/polyMesh";
    object      boundary;
}
// * * * * * * * * * * * * * * * * * * * * * * * * * * * * * * * * * * * * * //

9
(
    north
    {
        type            patch;
        nFaces          0;
        startFace       131081;
    }
    east
    {
        type            patch;
        nFaces          1109;
        startFace       131081;
    }
    south
    {
        type            patch;
        nFaces          1079;
        startFace       132190;
    }
    west
    {
        type            patch;
        nFaces          0;
        startFace       133269;
    }
    top
    {
        type            patch;
        nFaces          240;
        startFace       133269;
    }
    terrain
    {
        type            wall;
        inGroups        1(wall);
        nFaces          3538;
        startFace       133509;
    }
    procBoundary1to0
    {
        type            processor;
        inGroups        1(processor);
        nFaces          998;
        startFace       137047;
        matchTolerance  0.0001;
        transform       unknown;
        myProcNo        1;
        neighbProcNo    0;
    }
    procBoundary1to2
    {
        type            processor;
        inGroups        1(processor);
        nFaces          864;
        startFace       138045;
        matchTolerance  0.0001;
        transform       unknown;
        myProcNo        1;
        neighbProcNo    2;
    }
    procBoundary1to3
    {
        type            processor;
        inGroups        1(processor);
        nFaces          10;
        startFace       138909;
        matchTolerance  0.0001;
        transform       unknown;
        myProcNo        1;
        neighbProcNo    3;
    }
)

// ************************************************************************* //
