/*--------------------------------*- C++ -*----------------------------------*\
| =========                 |                                                 |
| \\      /  F ield         | OpenFOAM: The Open Source CFD Toolbox           |
|  \\    /   O peration     | Version:  4.0                                   |
|   \\  /    A nd           | Web:      www.OpenFOAM.org                      |
|    \\/     M anipulation  |                                                 |
\*---------------------------------------------------------------------------*/
FoamFile
{
    version     2.0;
    format      binary;
    class       polyBoundaryMesh;
    location    "constant/polyMesh";
    object      boundary;
}
// * * * * * * * * * * * * * * * * * * * * * * * * * * * * * * * * * * * * * //

7
(
    outlet
    {
        type            patch;
        nFaces          0;
        startFace       12675;
    }
    sides
    {
        type            patch;
        nFaces          300;
        startFace       12675;
    }
    inlet
    {
        type            patch;
        nFaces          300;
        startFace       12975;
    }
    ground
    {
        type            wall;
        inGroups        1(wall);
        nFaces          225;
        startFace       13275;
    }
    top
    {
        type            patch;
        nFaces          225;
        startFace       13500;
    }
    procBoundary0to1
    {
        type            processor;
        inGroups        1(processor);
        nFaces          300;
        startFace       13725;
        matchTolerance  0.0001;
        transform       unknown;
        myProcNo        0;
        neighbProcNo    1;
    }
    procBoundary0to2
    {
        type            processor;
        inGroups        1(processor);
        nFaces          300;
        startFace       14025;
        matchTolerance  0.0001;
        transform       unknown;
        myProcNo        0;
        neighbProcNo    2;
    }
)

// ************************************************************************* //
