/*--------------------------------*- C++ -*----------------------------------*\
| =========                 |                                                 |
| \\      /  F ield         | OpenFOAM: The Open Source CFD Toolbox           |
|  \\    /   O peration     | Version:  4.0                                   |
|   \\  /    A nd           | Web:      www.OpenFOAM.org                      |
|    \\/     M anipulation  |                                                 |
\*---------------------------------------------------------------------------*/
FoamFile
{
    version     2.0;
    format      binary;
    class       polyBoundaryMesh;
    location    "constant/polyMesh";
    object      boundary;
}
// * * * * * * * * * * * * * * * * * * * * * * * * * * * * * * * * * * * * * //

9
(
    north
    {
        type            patch;
        nFaces          945;
        startFace       126922;
    }
    east
    {
        type            patch;
        nFaces          1013;
        startFace       127867;
    }
    south
    {
        type            patch;
        nFaces          0;
        startFace       128880;
    }
    west
    {
        type            patch;
        nFaces          0;
        startFace       128880;
    }
    top
    {
        type            patch;
        nFaces          197;
        startFace       128880;
    }
    terrain
    {
        type            wall;
        inGroups        1(wall);
        nFaces          3608;
        startFace       129077;
    }
    procBoundary0to1
    {
        type            processor;
        inGroups        1(processor);
        nFaces          998;
        startFace       132685;
        matchTolerance  0.0001;
        transform       unknown;
        myProcNo        0;
        neighbProcNo    1;
    }
    procBoundary0to2
    {
        type            processor;
        inGroups        1(processor);
        nFaces          134;
        startFace       133683;
        matchTolerance  0.0001;
        transform       unknown;
        myProcNo        0;
        neighbProcNo    2;
    }
    procBoundary0to3
    {
        type            processor;
        inGroups        1(processor);
        nFaces          911;
        startFace       133817;
        matchTolerance  0.0001;
        transform       unknown;
        myProcNo        0;
        neighbProcNo    3;
    }
)

// ************************************************************************* //
