/*--------------------------------*- C++ -*----------------------------------*\
| =========                 |                                                 |
| \\      /  F ield         | OpenFOAM: The Open Source CFD Toolbox           |
|  \\    /   O peration     | Version:  4.0                                   |
|   \\  /    A nd           | Web:      www.OpenFOAM.org                      |
|    \\/     M anipulation  |                                                 |
\*---------------------------------------------------------------------------*/
FoamFile
{
    version     2.0;
    format      binary;
    class       polyBoundaryMesh;
    location    "constant/polyMesh";
    object      boundary;
}
// * * * * * * * * * * * * * * * * * * * * * * * * * * * * * * * * * * * * * //

9
(
    north
    {
        type            patch;
        nFaces          1176;
        startFace       128808;
    }
    east
    {
        type            patch;
        nFaces          0;
        startFace       129984;
    }
    south
    {
        type            patch;
        nFaces          0;
        startFace       129984;
    }
    west
    {
        type            patch;
        nFaces          967;
        startFace       129984;
    }
    top
    {
        type            patch;
        nFaces          238;
        startFace       130951;
    }
    terrain
    {
        type            wall;
        inGroups        1(wall);
        nFaces          3522;
        startFace       131189;
    }
    procBoundary3to0
    {
        type            processor;
        inGroups        1(processor);
        nFaces          911;
        startFace       134711;
        matchTolerance  0.0001;
        transform       unknown;
        myProcNo        3;
        neighbProcNo    0;
    }
    procBoundary3to1
    {
        type            processor;
        inGroups        1(processor);
        nFaces          10;
        startFace       135622;
        matchTolerance  0.0001;
        transform       unknown;
        myProcNo        3;
        neighbProcNo    1;
    }
    procBoundary3to2
    {
        type            processor;
        inGroups        1(processor);
        nFaces          1002;
        startFace       135632;
        matchTolerance  0.0001;
        transform       unknown;
        myProcNo        3;
        neighbProcNo    2;
    }
)

// ************************************************************************* //
