/*--------------------------------*- C++ -*----------------------------------*\
| =========                 |                                                 |
| \\      /  F ield         | OpenFOAM: The Open Source CFD Toolbox           |
|  \\    /   O peration     | Version:  4.0                                   |
|   \\  /    A nd           | Web:      www.OpenFOAM.org                      |
|    \\/     M anipulation  |                                                 |
\*---------------------------------------------------------------------------*/
FoamFile
{
    version     2.0;
    format      binary;
    class       polyBoundaryMesh;
    location    "constant/polyMesh";
    object      boundary;
}
// * * * * * * * * * * * * * * * * * * * * * * * * * * * * * * * * * * * * * //

6
(
    north
    {
        type            patch;
        nFaces          600;
        startFace       51900;
    }
    east
    {
        type            patch;
        nFaces          600;
        startFace       52500;
    }
    south
    {
        type            patch;
        nFaces          600;
        startFace       53100;
    }
    west
    {
        type            patch;
        nFaces          600;
        startFace       53700;
    }
    ground
    {
        type            wall;
        inGroups        1(wall);
        nFaces          900;
        startFace       54300;
    }
    top
    {
        type            patch;
        nFaces          900;
        startFace       55200;
    }
)

// ************************************************************************* //
