/*--------------------------------*- C++ -*----------------------------------*\
| =========                 |                                                 |
| \\      /  F ield         | OpenFOAM: The Open Source CFD Toolbox           |
|  \\    /   O peration     | Version:  4.0                                   |
|   \\  /    A nd           | Web:      www.OpenFOAM.org                      |
|    \\/     M anipulation  |                                                 |
\*---------------------------------------------------------------------------*/
FoamFile
{
    version     2.0;
    format      ascii;
    class       volScalarField;
    object      k;
}
// * * * * * * * * * * * * * * * * * * * * * * * * * * * * * * * * * * * * * //

#include        "include/initialConditions"

dimensions      [0 2 -2 0 0 0 0];

internalField   uniform $turbulentKE;

boundaryField
{
    north
    {
        type            slip;
    }

    east
    {
        type            atmBoundaryLayerInletK;
        #include        "include/ABLConditions"
    }

    south
    {
        type            slip;
    }

    west
    {
        type            inletOutlet;
        inletValue      uniform $turbulentKE;
        value           $internalField;
    }

    terrain
    {
        type            kqRWallFunction;
        value           uniform 0.0;
    }

    ground
    {
        type            zeroGradient;
    }

    top
    {
        type slip;
    }

    #include        "include/topPatch"
}


// ************************************************************************* //
